*HEADING
NAUO3 neck-scale cantilever
*NODE
1, 5.76322250e+01, 5.81454529e+02, 1.10518715e+02
2, 5.74334869e+01, 5.79413330e+02, 1.14177246e+02
3, 5.68395996e+01, 5.76378174e+02, 1.12346741e+02
4, 5.62606392e+01, 5.74070374e+02, 7.81470032e+01
5, 5.48166695e+01, 5.69215820e+02, 7.91349640e+01
6, 5.57858887e+01, 5.71627563e+02, 7.44000015e+01
7, 5.29004288e+01, 5.64097839e+02, 7.88006287e+01
8, 5.19194717e+01, 5.61647156e+02, 7.44000015e+01
9, 5.38526802e+01, 5.66637329e+02, 7.44000015e+01
10, 5.42371445e+01, 5.67244751e+02, 9.95769653e+01
11, 5.33606911e+01, 5.65026978e+02, 9.57677307e+01
12, 5.50786362e+01, 5.69701111e+02, 9.50465012e+01
13, 5.24780655e+01, 5.62800659e+02, 1.03806862e+02
14, 5.21318588e+01, 5.62175781e+02, 9.83492584e+01
15, 5.00932884e+01, 5.58658691e+02, 1.00973267e+02
16, 4.98995895e+01, 5.58290527e+02, 9.54876328e+01
17, 5.36891060e+01, 5.65981323e+02, 8.67939987e+01
18, 5.35695229e+01, 5.65609924e+02, 9.16017609e+01
19, 5.19656372e+01, 5.61872437e+02, 8.85462265e+01
20, 5.70188599e+01, 5.77402100e+02, 1.07006760e+02
** ... 38792 like lines cut
*ELEMENT, TYPE=C3D4, ELSET=Eall
1, 16163, 18173, 21915, 29722
2, 20409, 22091, 18374, 35203
3, 6339, 29711, 25911, 31892
4, 16319, 29555, 25315, 31017
5, 18670, 28339, 25379, 35082
6, 21323, 25128, 22551, 34808
7, 18212, 24919, 23718, 29115
8, 7389, 19625, 21809, 26293
9, 16677, 27906, 23887, 31962
10, 11484, 17043, 5718, 21279
11, 17589, 26112, 24574, 30733
12, 280, 310, 28516, 32637
13, 20422, 24771, 17056, 25638
14, 18666, 24771, 20422, 25638
15, 21471, 26613, 3765, 26991
16, 15733, 23004, 23001, 27096
17, 22940, 24791, 18699, 34801
18, 24377, 24928, 19312, 28108
19, 22949, 22987, 22974, 22988
20, 19553, 17659, 24709, 32498
** ... 192040 like lines cut
*NSET, NSET=Nprox
1292, 1293, 1406, 1408, 1418, 1419, 1420, 1524, 1525, 1526, 1527, 1528, 1556, 1557, 1558, 1559,
1560, 1561, 1562, 1566, 1620, 1624, 1625, 1626, 1628, 1629, 1797, 1798, 1799, 1800, 1801, 1802,
1810, 1819, 1820, 1821, 1830, 1831, 1832, 1833, 1861, 1862, 1863, 1873, 1874, 1875, 1888, 1889,
1890, 1891, 1892, 1893, 1914, 1915, 1916, 1948, 1949, 1950, 1967, 1968, 1969, 1970, 1971, 1976,
1977, 1981, 1982, 2064, 2065, 2077, 2078, 2440, 2441, 2442, 2444, 2445, 2446, 2447, 2448, 2449,
2450, 2451, 2452, 2453, 2454, 2455, 2456, 2457, 2458, 2459, 2460, 2461, 2462, 2463, 2464, 2465,
2466, 2467, 2468, 2469, 2470, 2471, 2481, 2482, 2483, 3068, 3069, 3070, 3071, 3072, 3073, 3074,
3075, 3076, 3077, 3078, 3079, 3080, 3177, 3178, 3179, 3180, 3181, 3182, 3410, 3465, 3466, 3468,
3470, 3472, 3484, 3487, 3531, 3546, 3547, 3548, 3551, 3553, 3554, 3555, 3565, 3568, 3584, 3585,
3599, 3600, 3601, 3602, 3603, 3604, 3605, 3606, 3607, 3608, 3609, 3610, 3611, 3612, 3613, 3614,
3615, 3616, 3617, 3618, 3619, 3620, 3621, 3622, 3623, 3624, 3625, 3626, 3627, 3629, 3630, 3631,
3632, 3633, 3638, 3639, 3640, 3648, 3649, 3656, 3657, 3658, 3659, 3660, 3661, 3662, 3663, 3664,
3665, 3666, 3669, 3670, 3671, 3672, 3675, 3694, 3695, 3696, 3701, 3705, 3706, 3707, 3708, 3709,
3719, 3720, 3724, 3725, 3726, 3727, 3766, 3767, 3768, 3769, 3770, 3771, 3772, 3773, 3774, 3775,
3776, 3777, 3778, 3779, 3780, 3808, 3809, 3830, 3831, 3832, 3845, 3846, 3847, 3848, 3849, 3850,
3876, 3877, 3878, 3883, 3884, 3888, 3917, 3918, 3919, 3923, 3924, 3932, 3933, 3934, 3969, 3970,
3973, 3974, 3975, 3977, 3978, 3979, 3980, 3981, 3982, 3983, 3993, 4046, 4047, 4057, 4058, 4063,
5160, 5161, 5162, 5163, 5164, 5167, 5170, 5483, 5484, 5485, 5486, 5487, 5488, 5493, 5503, 5509,
5524, 5525, 5612, 5615, 5616, 5620, 5621, 5622, 5623, 5635, 5636, 5638, 5701, 5702, 5776, 5777,
5778, 6003, 6004, 6039, 6048, 6075, 6076, 6157, 6158, 6160, 6161, 6162, 6163, 6165, 6176, 6181,
** ... 20 like lines cut
*NSET, NSET=Nref
38812,
*SURFACE, NAME=Sdist, TYPE=ELEMENT
5905, S1
12891, S1
13644, S1
17674, S1
24846, S1
28856, S1
29351, S1
32346, S1
32888, S1
33506, S1
34731, S1
40411, S1
42034, S1
42739, S1
47158, S1
49554, S1
49645, S1
52284, S1
54395, S1
54665, S1
** ... 897 like lines cut
*MATERIAL, NAME=AlUR
*ELASTIC
70000.0, 0.33
*DENSITY
1.66233566e-09
*SOLID SECTION, ELSET=Eall, MATERIAL=AlUR
*COUPLING, CONSTRAINT NAME=RBE3dist, REF NODE=38812, SURFACE=Sdist
*DISTRIBUTING
1, 6
*BOUNDARY
Nprox, 1, 3
*STEP
*STATIC
*DLOAD
Eall, GRAV, 9.80665000e+03, -2.07527379e-06, 1.81362810e-03, -9.99998355e-01
*CLOAD
38812, 1, -2.21444494e-04
38812, 2, 1.93525288e-01
38812, 3, -1.06705983e+02
38812, 4, -4.43767735e+04
38812, 5, -5.07788529e+01
38812, 6, -1.87943069e-17
*NODE FILE
U, RF
*EL FILE
S
*NODE PRINT, NSET=Nprox
RF
*END STEP
