*HEADING
NAUO3 neck-scale cantilever
*NODE
1, 1.02431383e+01, 5.98033081e+02, 2.01043335e+02
2, 1.28150616e+01, 5.97236694e+02, 2.01148193e+02
3, 1.31257801e+01, 5.97112183e+02, 2.01467163e+02
4, 4.50913925e+01, 5.14512634e+02, 1.01719460e+02
5, 4.46144333e+01, 5.14410461e+02, 1.01265785e+02
6, 4.46504288e+01, 5.14512634e+02, 1.01175163e+02
7, 4.41148834e+01, 5.26516296e+02, 1.75454712e+02
8, 4.26031761e+01, 5.22448486e+02, 1.76928848e+02
9, 4.04632797e+01, 5.26516296e+02, 1.79037735e+02
10, 1.03950491e+01, 6.42221985e+02, 1.48550064e+02
11, 1.24327374e+01, 6.42690063e+02, 1.48488434e+02
12, 1.50107584e+01, 6.40782471e+02, 1.48739563e+02
13, -2.39357147e+01, 6.11392395e+02, 1.99284546e+02
14, -2.51219673e+01, 6.11037720e+02, 1.99633835e+02
15, -2.61337948e+01, 6.10170349e+02, 1.99445435e+02
16, -7.99407864e+00, 2.27141159e+02, 1.94823822e+02
17, -1.19589262e+01, 2.26845352e+02, 1.94128510e+02
18, -1.10975590e+01, 2.30911682e+02, 1.93831451e+02
19, -4.68555222e+01, 5.14187500e+02, 1.04473923e+02
20, -4.98726425e+01, 5.14123230e+02, 1.08584259e+02
** ... 36563 like lines cut
*ELEMENT, TYPE=C3D4, ELSET=Eall
1, 22113, 23465, 18525, 34405
2, 18525, 22113, 18956, 23465
3, 4739, 4060, 9879, 30542
4, 16915, 20919, 17927, 21668
5, 16756, 25041, 19271, 32863
6, 16012, 19836, 18534, 22584
7, 5825, 20934, 20932, 33420
8, 4258, 18635, 25674, 30430
9, 16426, 19112, 18566, 23822
10, 21926, 33322, 18873, 34298
11, 18883, 19242, 16295, 26088
12, 16095, 25386, 19254, 26928
13, 16429, 25312, 21541, 25858
14, 21514, 32609, 28252, 34927
15, 16898, 20134, 18696, 21450
16, 22406, 30240, 16502, 31210
17, 17905, 23602, 19904, 24335
18, 17910, 24600, 28316, 30112
19, 1960, 21563, 20762, 26123
20, 22249, 29418, 17672, 32023
** ... 177640 like lines cut
*NSET, NSET=Nprox
139, 140, 141, 161, 162, 203, 204, 205, 280, 281, 282, 339, 340, 341, 343, 368,
369, 409, 410, 411, 415, 417, 436, 437, 438, 517, 518, 519, 577, 578, 579, 609,
626, 627, 628, 656, 694, 695, 696, 813, 814, 850, 911, 955, 956, 987, 1029, 1030,
1031, 1038, 1039, 1040, 1075, 1076, 1077, 1182, 1209, 1211, 1337, 1369, 1370, 1382, 1383, 1384,
1408, 1409, 1432, 1433, 1458, 1572, 1624, 1625, 1626, 1679, 1680, 1681, 1688, 1774, 1775, 1776,
1806, 1808, 1812, 1813, 1814, 1848, 1857, 1858, 1859, 1860, 1861, 1913, 1914, 1915, 1976, 1981,
1996, 1997, 1998, 2019, 2034, 2035, 2087, 2088, 2089, 2093, 2140, 2142, 2176, 2191, 2212, 2253,
2269, 2270, 2271, 2308, 2327, 2328, 2450, 2451, 2508, 2562, 2575, 2576, 2577, 2591, 2592, 2593,
2679, 2680, 2768, 2795, 2796, 2797, 2862, 2940, 2951, 3010, 3011, 3012, 3024, 3025, 3026, 3027,
3028, 3029, 3050, 3112, 3113, 3114, 3115, 3145, 3146, 3167, 3170, 3171, 3172, 3173, 3174, 3175,
3189, 3199, 3292, 3293, 3312, 3371, 3372, 3373, 3445, 3446, 3541, 3542, 3543, 3586, 3614, 3652,
3698, 3767, 3768, 3776, 3810, 3814, 3815, 3906, 4011, 4012, 4014, 4015, 4016, 4048, 4124, 4125,
4126, 4189, 4190, 4191, 4210, 4211, 4212, 4257, 4258, 4259, 4278, 4279, 4312, 4313, 4398, 4404,
4450, 4451, 4457, 4458, 4459, 4460, 4461, 4494, 4546, 4547, 4548, 4568, 4582, 4620, 4641, 4654,
4664, 4669, 4673, 4693, 4694, 4695, 4705, 4728, 4731, 4733, 4764, 4765, 4766, 4779, 4830, 4831,
4833, 4834, 4849, 4850, 4861, 4862, 4881, 4883, 4936, 4945, 4991, 4992, 5013, 5026, 5029, 5031,
5060, 5091, 5093, 5105, 5138, 5139, 5170, 5177, 5178, 5179, 5211, 5218, 5219, 5220, 5322, 5323,
5367, 5368, 5370, 5408, 5462, 5535, 5558, 5617, 5633, 5659, 5660, 5661, 5670, 5711, 5712, 5754,
5755, 5756, 5766, 5767, 5768, 5827, 5844, 5848, 5867, 5868, 5870, 5871, 5872, 5877, 5878, 5879,
5897, 5898, 5899, 5941, 5962, 5963, 5964, 5980, 5981, 6033, 6034, 6035, 6078, 6086, 6088, 6093,
** ... 20 like lines cut
*NSET, NSET=Nref
36583,
*SURFACE, NAME=Sdist, TYPE=ELEMENT
643, S1
769, S1
1659, S1
2430, S1
7017, S1
11989, S1
12143, S1
15394, S1
16143, S1
16625, S1
16743, S1
16781, S1
17221, S1
21904, S1
22436, S1
26307, S1
30379, S1
34843, S1
39979, S1
40024, S1
** ... 897 like lines cut
*MATERIAL, NAME=AlUR
*ELASTIC
70000.0, 0.33
*DENSITY
1.66233566e-09
*SOLID SECTION, ELSET=Eall, MATERIAL=AlUR
*COUPLING, CONSTRAINT NAME=RBE3dist, REF NODE=36583, SURFACE=Sdist
*DISTRIBUTING
1, 6
*BOUNDARY
Nprox, 1, 3
*STEP
*STATIC
*DLOAD
Eall, GRAV, 9.80665000e+03, -2.08625021e-06, 1.84866645e-03, -9.99998291e-01
*CLOAD
36583, 1, -2.22615746e-04
36583, 2, 1.97264096e-01
36583, 3, -1.06705976e+02
36583, 4, -4.43767743e+04
36583, 5, -5.00799128e+01
36583, 6, 0.00000000e+00
*NODE FILE
U, RF
*EL FILE
S
*NODE PRINT, NSET=Nprox
RF
*END STEP
