*HEADING
Aluminum fin analytic validation (adiabatic tip)
*NODE
1, 1.00000000e+02, 1.22464680e-15, 5.00000000e+00
2, 0.00000000e+00, 1.22464680e-15, 5.00000000e+00
3, 1.00000000e+02, -1.91341716e+00, 4.61939766e+00
4, 1.00000000e+02, -3.53553391e+00, 3.53553391e+00
5, 1.00000000e+02, -4.61939766e+00, 1.91341716e+00
6, 1.00000000e+02, -5.00000000e+00, 1.69595071e-14
7, 1.00000000e+02, -4.61939766e+00, -1.91341716e+00
8, 1.00000000e+02, -3.53553391e+00, -3.53553391e+00
9, 1.00000000e+02, -1.91341716e+00, -4.61939766e+00
10, 1.00000000e+02, -3.61394602e-14, -5.00000000e+00
11, 1.00000000e+02, 1.91341716e+00, -4.61939766e+00
12, 1.00000000e+02, 3.53553391e+00, -3.53553391e+00
13, 1.00000000e+02, 4.61939766e+00, -1.91341716e+00
14, 1.00000000e+02, 5.00000000e+00, -2.31229456e-14
15, 1.00000000e+02, 4.61939766e+00, 1.91341716e+00
16, 1.00000000e+02, 3.53553391e+00, 3.53553391e+00
17, 1.00000000e+02, 1.91341716e+00, 4.61939766e+00
18, 2.00000000e+00, 1.22464680e-15, 5.00000000e+00
19, 4.00000000e+00, 1.22464680e-15, 5.00000000e+00
20, 6.00000000e+00, 1.22464680e-15, 5.00000000e+00
** ... 1333 like lines cut
*ELEMENT, TYPE=C3D4, ELSET=Eall
1, 1005, 1115, 439, 1269
2, 326, 1102, 996, 1190
3, 439, 1115, 1005, 1214
4, 371, 1109, 1003, 1298
5, 118, 1125, 1022, 1130
6, 1004, 1044, 979, 1286
7, 1001, 979, 1044, 1286
8, 1082, 1099, 779, 1126
9, 1023, 1116, 655, 1133
10, 1059, 1074, 476, 1121
11, 640, 1053, 1087, 1106
12, 470, 1068, 1076, 1112
13, 33, 1033, 1188, 1241
14, 767, 779, 1099, 1126
15, 1053, 1106, 640, 1201
16, 779, 1099, 1082, 1310
17, 399, 1118, 1109, 1298
18, 33, 1188, 1017, 1241
19, 722, 1145, 1019, 1160
20, 722, 388, 1019, 1145
** ... 4990 like lines cut
*NSET, NSET=Nbase
951, 952, 953, 954, 955, 956, 957, 958, 959, 960, 961, 962, 963, 964, 965, 966,
967, 968, 969, 970, 971, 972, 973, 974, 975,
*NSET, NSET=Nall
1, 2, 3, 4, 5, 6, 7, 8, 9, 10, 11, 12, 13, 14, 15, 16,
17, 18, 19, 20, 21, 22, 23, 24, 25, 26, 27, 28, 29, 30, 31, 32,
33, 34, 35, 36, 37, 38, 39, 40, 41, 42, 43, 44, 45, 46, 47, 48,
49, 50, 51, 52, 53, 54, 55, 56, 57, 58, 59, 60, 61, 62, 63, 64,
65, 66, 67, 68, 69, 70, 71, 72, 73, 74, 75, 76, 77, 78, 79, 80,
81, 82, 83, 84, 85, 86, 87, 88, 89, 90, 91, 92, 93, 94, 95, 96,
97, 98, 99, 100, 101, 102, 103, 104, 105, 106, 107, 108, 109, 110, 111, 112,
113, 114, 115, 116, 117, 118, 119, 120, 121, 122, 123, 124, 125, 126, 127, 128,
129, 130, 131, 132, 133, 134, 135, 136, 137, 138, 139, 140, 141, 142, 143, 144,
145, 146, 147, 148, 149, 150, 151, 152, 153, 154, 155, 156, 157, 158, 159, 160,
161, 162, 163, 164, 165, 166, 167, 168, 169, 170, 171, 172, 173, 174, 175, 176,
177, 178, 179, 180, 181, 182, 183, 184, 185, 186, 187, 188, 189, 190, 191, 192,
193, 194, 195, 196, 197, 198, 199, 200, 201, 202, 203, 204, 205, 206, 207, 208,
209, 210, 211, 212, 213, 214, 215, 216, 217, 218, 219, 220, 221, 222, 223, 224,
225, 226, 227, 228, 229, 230, 231, 232, 233, 234, 235, 236, 237, 238, 239, 240,
241, 242, 243, 244, 245, 246, 247, 248, 249, 250, 251, 252, 253, 254, 255, 256,
257, 258, 259, 260, 261, 262, 263, 264, 265, 266, 267, 268, 269, 270, 271, 272,
273, 274, 275, 276, 277, 278, 279, 280, 281, 282, 283, 284, 285, 286, 287, 288,
289, 290, 291, 292, 293, 294, 295, 296, 297, 298, 299, 300, 301, 302, 303, 304,
305, 306, 307, 308, 309, 310, 311, 312, 313, 314, 315, 316, 317, 318, 319, 320,
** ... 65 like lines cut
*MATERIAL, NAME=Al
*CONDUCTIVITY
2.00000000e+02
*SOLID SECTION, ELSET=Eall, MATERIAL=Al
*INITIAL CONDITIONS, TYPE=TEMPERATURE
Nall, 20
*STEP
*HEAT TRANSFER, STEADY STATE
1., 1.
*BOUNDARY
Nbase, 11, 11, 100
*FILM
30, F1, 20, 1.00000000e-02
57, F1, 20, 1.00000000e-02
61, F1, 20, 1.00000000e-02
84, F1, 20, 1.00000000e-02
101, F1, 20, 1.00000000e-02
108, F1, 20, 1.00000000e-02
116, F1, 20, 1.00000000e-02
125, F1, 20, 1.00000000e-02
126, F1, 20, 1.00000000e-02
134, F1, 20, 1.00000000e-02
135, F1, 20, 1.00000000e-02
141, F1, 20, 1.00000000e-02
152, F1, 20, 1.00000000e-02
155, F1, 20, 1.00000000e-02
157, F1, 20, 1.00000000e-02
193, F1, 20, 1.00000000e-02
195, F1, 20, 1.00000000e-02
202, F1, 20, 1.00000000e-02
204, F1, 20, 1.00000000e-02
208, F1, 20, 1.00000000e-02
** ... 1862 like lines cut
*NODE FILE
NT
*END STEP
