*HEADING
Aluminum fin analytic validation (adiabatic tip)
*NODE
1, 1.00000000e+02, 1.22464680e-15, 5.00000000e+00
2, 0.00000000e+00, 1.22464680e-15, 5.00000000e+00
3, 1.00000000e+02, -9.75451610e-01, 4.90392640e+00
4, 1.00000000e+02, -1.91341716e+00, 4.61939766e+00
5, 1.00000000e+02, -2.77785117e+00, 4.15734806e+00
6, 1.00000000e+02, -3.53553391e+00, 3.53553391e+00
7, 1.00000000e+02, -4.15734806e+00, 2.77785117e+00
8, 1.00000000e+02, -4.61939766e+00, 1.91341716e+00
9, 1.00000000e+02, -4.90392640e+00, 9.75451610e-01
10, 1.00000000e+02, -5.00000000e+00, 1.69595071e-14
11, 1.00000000e+02, -4.90392640e+00, -9.75451610e-01
12, 1.00000000e+02, -4.61939766e+00, -1.91341716e+00
13, 1.00000000e+02, -4.15734806e+00, -2.77785117e+00
14, 1.00000000e+02, -3.53553391e+00, -3.53553391e+00
15, 1.00000000e+02, -2.77785117e+00, -4.15734806e+00
16, 1.00000000e+02, -1.91341716e+00, -4.61939766e+00
17, 1.00000000e+02, -9.75451610e-01, -4.90392640e+00
18, 1.00000000e+02, -3.61394602e-14, -5.00000000e+00
19, 1.00000000e+02, 9.75451610e-01, -4.90392640e+00
20, 1.00000000e+02, 1.91341716e+00, -4.61939766e+00
** ... 7979 like lines cut
*ELEMENT, TYPE=C3D4, ELSET=Eall
1, 99, 4454, 5163, 5564
2, 2894, 5191, 4446, 7764
3, 4488, 4699, 3964, 5652
4, 6129, 6402, 4559, 7146
5, 3924, 4559, 6402, 7146
6, 246, 4430, 2239, 5501
7, 367, 6851, 5040, 6860
8, 710, 5021, 4799, 6151
9, 4132, 4361, 6094, 6752
10, 4027, 4737, 4303, 7457
11, 4047, 4910, 4348, 4972
12, 4682, 6094, 4361, 6752
13, 3901, 5459, 5247, 5659
14, 3129, 5418, 6221, 6734
15, 4450, 4643, 3892, 5795
16, 4027, 4933, 4737, 5198
17, 4323, 3930, 4680, 5655
18, 4112, 5488, 4549, 6519
19, 4549, 5488, 4278, 6519
20, 4132, 6094, 4682, 6752
** ... 37104 like lines cut
*NSET, NSET=Nbase
3793, 3794, 3795, 3796, 3797, 3798, 3799, 3800, 3801, 3802, 3803, 3804, 3805, 3806, 3807, 3808,
3809, 3810, 3811, 3812, 3813, 3814, 3815, 3816, 3817, 3818, 3819, 3820, 3821, 3822, 3823, 3824,
3825, 3826, 3827, 3828, 3829, 3830, 3831, 3832, 3833, 3834, 3835, 3836, 3837, 3838, 3839, 3840,
3841, 3842, 3843, 3844, 3845, 3846, 3847, 3848, 3849, 3850, 3851, 3852, 3853, 3854, 3855, 3856,
3857, 3858, 3859, 3860, 3861, 3862, 3863, 3864, 3865, 3866, 3867, 3868, 3869, 3870, 3871, 3872,
3873, 3874, 3875, 3876, 3877, 3878, 3879, 3880, 3881, 3882, 3883,
*NSET, NSET=Nall
1, 2, 3, 4, 5, 6, 7, 8, 9, 10, 11, 12, 13, 14, 15, 16,
17, 18, 19, 20, 21, 22, 23, 24, 25, 26, 27, 28, 29, 30, 31, 32,
33, 34, 35, 36, 37, 38, 39, 40, 41, 42, 43, 44, 45, 46, 47, 48,
49, 50, 51, 52, 53, 54, 55, 56, 57, 58, 59, 60, 61, 62, 63, 64,
65, 66, 67, 68, 69, 70, 71, 72, 73, 74, 75, 76, 77, 78, 79, 80,
81, 82, 83, 84, 85, 86, 87, 88, 89, 90, 91, 92, 93, 94, 95, 96,
97, 98, 99, 100, 101, 102, 103, 104, 105, 106, 107, 108, 109, 110, 111, 112,
113, 114, 115, 116, 117, 118, 119, 120, 121, 122, 123, 124, 125, 126, 127, 128,
129, 130, 131, 132, 133, 134, 135, 136, 137, 138, 139, 140, 141, 142, 143, 144,
145, 146, 147, 148, 149, 150, 151, 152, 153, 154, 155, 156, 157, 158, 159, 160,
161, 162, 163, 164, 165, 166, 167, 168, 169, 170, 171, 172, 173, 174, 175, 176,
177, 178, 179, 180, 181, 182, 183, 184, 185, 186, 187, 188, 189, 190, 191, 192,
193, 194, 195, 196, 197, 198, 199, 200, 201, 202, 203, 204, 205, 206, 207, 208,
209, 210, 211, 212, 213, 214, 215, 216, 217, 218, 219, 220, 221, 222, 223, 224,
225, 226, 227, 228, 229, 230, 231, 232, 233, 234, 235, 236, 237, 238, 239, 240,
241, 242, 243, 244, 245, 246, 247, 248, 249, 250, 251, 252, 253, 254, 255, 256,
257, 258, 259, 260, 261, 262, 263, 264, 265, 266, 267, 268, 269, 270, 271, 272,
273, 274, 275, 276, 277, 278, 279, 280, 281, 282, 283, 284, 285, 286, 287, 288,
289, 290, 291, 292, 293, 294, 295, 296, 297, 298, 299, 300, 301, 302, 303, 304,
305, 306, 307, 308, 309, 310, 311, 312, 313, 314, 315, 316, 317, 318, 319, 320,
** ... 480 like lines cut
*MATERIAL, NAME=Al
*CONDUCTIVITY
2.00000000e+02
*SOLID SECTION, ELSET=Eall, MATERIAL=Al
*INITIAL CONDITIONS, TYPE=TEMPERATURE
Nall, 20
*STEP
*HEAT TRANSFER, STEADY STATE
1., 1.
*BOUNDARY
Nbase, 11, 11, 100
*FILM
102, F1, 20, 1.00000000e-02
170, F1, 20, 1.00000000e-02
213, F1, 20, 1.00000000e-02
215, F1, 20, 1.00000000e-02
443, F1, 20, 1.00000000e-02
449, F1, 20, 1.00000000e-02
558, F1, 20, 1.00000000e-02
586, F1, 20, 1.00000000e-02
652, F1, 20, 1.00000000e-02
692, F1, 20, 1.00000000e-02
704, F1, 20, 1.00000000e-02
762, F1, 20, 1.00000000e-02
941, F1, 20, 1.00000000e-02
991, F1, 20, 1.00000000e-02
994, F1, 20, 1.00000000e-02
1001, F1, 20, 1.00000000e-02
1014, F1, 20, 1.00000000e-02
1024, F1, 20, 1.00000000e-02
1045, F1, 20, 1.00000000e-02
1073, F1, 20, 1.00000000e-02
** ... 7446 like lines cut
*NODE FILE
NT
*END STEP
